test/data/dist/3bus_example.dss
Clear
New Circuit.3Bus_example
!  define a really stiff source
~ basekv=0.4   pu=0.9959  MVAsc1=1e6  MVAsc3=1e6 basemva=0.5

!Define Linecodes


New linecode.556MCM nphases=3 basefreq=50  ! ohms per 5 mile
~ rmatrix = ( 0.1000 | 0.0400    0.1000 |  0.0400    0.0400    0.1000)
~ xmatrix = ( 0.0583 |  0.0233    0.0583 | 0.0233    0.0233    0.0583)
~ cmatrix = (50.92958178940651  | -0  50.92958178940651 | -0 -0 50.92958178940651  ) ! small capacitance


New linecode.4/0QUAD nphases=3 basefreq=50  ! ohms per 100ft
~ rmatrix = ( 0.1167 | 0.0467    0.1167 | 0.0467    0.0467    0.1167)
~ xmatrix = (0.0667  |  0.0267    0.0667  |  0.0267    0.0267    0.0667 )
~ cmatrix = (50.92958178940651  | -0  50.92958178940651 | -0 -0 50.92958178940651  )  ! small capacitance

!Define lines

New Line.OHLine  bus1=sourcebus.1.2.3  Primary.1.2.3  linecode = 556MCM   length=1  ! 5 mile line
New Line.OHLine2    Bus1=Primary.1.2.3  Primary2.1.2.3  linecode = 556MCM  length=1   ! 100 ft
New Line.Quad   Bus1=Primary2.1.2.3 loadbus.1.2.3  linecode = 4/0QUAD length=1

!New relay.R1  MonitoredObj=ohline TS=380 TDS=.5 type=overcurrent SwitchedTerm=1 phasecurve=relay_curve
!New relay.R2 TS=380 TDS=.5 type=overcurrent SwitchedTerm=1 MonitoredObj=L1
!New relay.R3 TS=380 TDS=.5 type=overcurrent SwitchedTerm=1 MonitoredObj=L1
!New relay.R2 element1=ohline TS=1 TDS=.5 shots=4 ct=ct1 type=overcurrent
!New relay.R3 element1=primary2 TS=1 TDS=.5 cts=[ct1,ct2] type=differential
!New relay.R4 element1=quad TS=1 TDS=.5 cts=ct3 type=differential
!New relay.R5 element1=ohline element2=ohline2 TS=5 TDS=.5 cts=[ct1,ct2] type=differential
!New relay.r6 ohline 1 ohline 1 phasetrip=5 tdphase=0.5 type=overcurrent

!New tcc_curve.relay_curve t_array=[3, .8, 0.3] c_array=[15,20, 30] npts=4
!New fuse.fuse1 element=ohline min_melt_curve=[1,2,3;4,5,6]

!New monitor.ct1 element=ohline n_p=1900 n_s=5
!New monitor.ct2 element=ohline2 n_p=1900 n_s=5
!New monitor.ct3 element=quad n_p=500 n_s=5
!New generator.gen1 bus1=loadbus.1.2.3 phases=3 Kv=.8 kW=60 pf=.95 status=fixed forceON=yes
!Loads - single phase

New Load.L1 phases=1  loadbus.1.0   ( 0.4 3 sqrt / )   kW=6   kvar=3  model=1
New Load.L2 phases=1  loadbus.2.0   ( 0.4 3 sqrt / )   kW=6   kvar=3  model=1
New Load.L3 phases=1  loadbus.3.0   ( 0.4 3 sqrt / )   kW=6   kvar=3  model=1


Set voltagebases=[0.4]
Set tolerance=0.000001
set defaultbasefreq=50
Calcvoltagebases

Solve

solve mode=faultstudy
show f